14
C          0.06220        0.71820        0.00020
C         -0.06220       -0.71830        0.00020
C         -1.17630        1.21810       -0.00010
C          1.17640       -1.21810        0.00000
C          1.43850        1.08810        0.00000
C         -1.43860       -1.08790        0.00000
C         -2.11020        0.08390       -0.00020
C          2.11020       -0.08390       -0.00020
H         -1.47030        2.25450       -0.00040
H          1.47030       -2.25450       -0.00030
H          1.84790        2.08290       -0.00010
H         -1.84800       -2.08270        0.00000
H         -3.18280        0.19980       -0.00040
H          3.18270       -0.19980       -0.00040
